it's first readme.txt.
New Line.
modified by bq online.
