it's first readme.txt.
New Line.
modified by bq online.
modified by bq local based on branch master.
modified by bq local hased on brance master, no2.
modified by bq local hased on brance master, no3.

