it's first readme.txt.
New Line.
modified by bq online.
modified by bq online with creates new branch & start a pull request
