it's first readme.txt.
New Line.
modified by bq online.
modified by bq online with creates new branch & start a pull request
modified by bq locally no1 based on JohnnyBao80-patch-1.
modified by bq locally no1 based on JohnnyBao80-patch-1, no2.
