it's first readme.txt.
New Line.
modified by bq online.
modified by bq local based on branch master.